
  ACD/Labs02252212353D

 17 19  0  0  0  0  0  0  0  0  2 V2000
   12.0354   -5.9912   -0.0661 C   0  0  0  0  0  0  0  0  0  0  0  0
   10.9619   -6.7757   -0.0334 N   0  0  0  0  0  0  0  0  0  0  0  0
   11.6235   -4.7282   -0.0026 N   0  0  0  0  0  0  0  0  0  0  0  0
    9.8866   -5.9976    0.0503 C   0  0  0  0  0  0  0  0  0  0  0  0
   10.2953   -4.7321    0.0694 N   0  0  0  0  0  0  0  0  0  0  0  0
   10.9650   -8.1057   -0.0334 C   0  0  0  0  0  0  0  0  0  0  0  0
   10.5746   -9.1233   -0.0334 C   0  0  0  0  0  0  0  0  0  0  0  0
    9.2766   -8.8332   -0.0334 C   0  0  0  0  0  0  0  0  0  0  0  0
    8.5996   -9.9780   -0.0334 C   0  0  0  0  0  0  0  0  0  0  0  0
   10.6997  -10.4474   -0.0334 O   0  0  0  0  0  0  0  0  0  0  0  0
    9.4793  -10.9758   -0.0334 C   0  0  0  0  0  0  0  0  0  0  0  0
   13.3011   -6.3997   -0.0661 C   0  0  0  0  0  0  0  0  0  0  0  0
   14.3778   -5.6190   -0.0661 S   0  0  0  0  0  0  0  0  0  0  0  0
   13.7110   -7.6651   -0.0661 C   0  0  0  0  0  0  0  0  0  0  0  0
   15.4531   -6.4016   -0.0661 C   0  0  0  0  0  0  0  0  0  0  0  0
   15.0412   -7.6662   -0.0661 C   0  0  0  0  0  0  0  0  0  0  0  0
    8.6224   -6.4109    0.0503 S   0  5  0  0  0  0  0  0  0  0  0  0
  1  2  1  0  0  0  0
  1  3  2  0  0  0  0
  2  4  1  0  0  0  0
  3  5  1  0  0  0  0
  4  5  2  0  0  0  0
  2  6  1  0  0  0  0
  6  7  1  0  0  0  0
  8  7  1  0  0  0  0
  8  9  1  0  0  0  0
  7 10  1  0  0  0  0
  9 11  1  0  0  0  0
 10 11  1  0  0  0  0
  1 12  1  0  0  0  0
 12 13  1  0  0  0  0
 12 14  2  0  0  0  0
 13 15  1  0  0  0  0
 14 16  1  0  0  0  0
 15 16  2  0  0  0  0
  4 17  1  0  0  0  0
M  CHG  1  17  -1
M  END
